
#======================================================================
# CRYSTAL DATA
#----------------------------------------------------------------------
data_VESTA_phase_1

_chemical_name_common                  'H18 C6 Se2 S2 N4 Cl2'
_cell_length_a                         5.693720
_cell_length_b                         8.304111
_cell_length_c                         9.208453
_cell_angle_alpha                      70.573235
_cell_angle_beta                       81.793549
_cell_angle_gamma                      77.677338
_cell_volume                           399.921502
_space_group_name_H-M_alt              'P 1'
_space_group_IT_number                 1

loop_
_space_group_symop_operation_xyz
   'x, y, z'

loop_
   _atom_site_label
   _atom_site_occupancy
   _atom_site_fract_x
   _atom_site_fract_y
   _atom_site_fract_z
   _atom_site_adp_type
   _atom_site_U_iso_or_equiv
   _atom_site_type_symbol
   H0         1.0     0.548042     0.045748     0.837455    Uiso  ? H
   H1         1.0     0.285897     0.856553     0.067416    Uiso  ? H
   H2         1.0     0.630177     0.646763     0.000928    Uiso  ? H
   H3         1.0     0.180794     0.092307     0.515327    Uiso  ? H
   H4         1.0     0.198025     0.197090     0.306500    Uiso  ? H
   H5         1.0     0.801975     0.802910     0.693500    Uiso  ? H
   H6         1.0     0.714103     0.143447     0.932584    Uiso  ? H
   H7         1.0     0.157973     0.505295     0.867092    Uiso  ? H
   H8         1.0     0.141560     0.276023     0.932834    Uiso  ? H
   H9         1.0     0.451958     0.954252     0.162545    Uiso  ? H
   H10        1.0     0.819206     0.907693     0.484673    Uiso  ? H
   H11        1.0     0.813925     0.135276     0.739550    Uiso  ? H
   H12        1.0     0.842027     0.494705     0.132908    Uiso  ? H
   H13        1.0     0.369823     0.353237     0.999072    Uiso  ? H
   H14        1.0     0.186075     0.864724     0.260450    Uiso  ? H
   H15        1.0     0.858440     0.723977     0.067166    Uiso  ? H
   H16        1.0     0.983884     0.688745     0.566308    Uiso  ? H
   H17        1.0     0.016116     0.311255     0.433692    Uiso  ? H
   C18        1.0     0.175154     0.215055     0.420194    Uiso  ? C
   C19        1.0     0.259915     0.372409     0.903636    Uiso  ? C
   C20        1.0     0.824846     0.784945     0.579806    Uiso  ? C
   C21        1.0     0.657051     0.145881     0.822323    Uiso  ? C
   C22        1.0     0.740085     0.627591     0.096364    Uiso  ? C
   C23        1.0     0.342949     0.854119     0.177677    Uiso  ? C
   Se24       1.0     0.447383     0.310282     0.440390    Uiso  ? Se
   Se25       1.0     0.552617     0.689718     0.559610    Uiso  ? Se
   S26        1.0     0.533195     0.650233     0.256340    Uiso  ? S
   S27        1.0     0.466805     0.349767     0.743660    Uiso  ? S
   N28        1.0     0.705845     0.644607     0.376632    Uiso  ? N
   N29        1.0     0.294155     0.355393     0.623368    Uiso  ? N
   N30        1.0     0.655665     0.476963     0.700325    Uiso  ? N
   N31        1.0     0.344335     0.523037     0.299675    Uiso  ? N
   Cl32       1.0     0.720365     0.156068     0.204921    Uiso  ? Cl
   Cl33       1.0     0.279635     0.843932     0.795079    Uiso  ? Cl
